SOLVER= RANS
KIND_TURB_MODEL= SA
MATH_PROBLEM= DIRECT
RESTART_SOL= NO
MACH_NUMBER= 0.2
FREESTREAM_TEMPERATURE= 300.0
REYNOLDS_NUMBER= 5000000.0
REYNOLDS_LENGTH= 1.0
REF_ORIGIN_MOMENT_X= 0.00
REF_ORIGIN_MOMENT_Y= 0.00
REF_ORIGIN_MOMENT_Z= 0.00
REF_LENGTH= 1.0
REF_AREA= 2.0
REF_DIMENSIONALIZATION= FREESTREAM_PRESS_EQ_ONE
MARKER_HEATFLUX= ( wall, 0.0 )
MARKER_INLET= ( inlet, 302.4, 117691.7874, 1.0, 0.0, 0.0 )
MARKER_OUTLET= ( outlet, 114455.0, farfield, 114455.0 )
MARKER_SYM= ( symmetry )
MARKER_PLOTTING= ( wall )
MARKER_MONITORING= ( wall )
NUM_METHOD_GRAD= GREEN_GAUSS
CFL_NUMBER= 10.0
CFL_ADAPT= YES
CFL_ADAPT_PARAM= ( 0.1, 1.2, 10.0, 5e2 )
ITER= 99999
LINEAR_SOLVER= FGMRES
LINEAR_SOLVER_PREC= ILU
LINEAR_SOLVER_ERROR= 1E-10
LINEAR_SOLVER_ITER= 10
CONV_NUM_METHOD_FLOW= ROE
MUSCL_FLOW= YES
SLOPE_LIMITER_FLOW= NONE
VENKAT_LIMITER_COEFF= 0.1
CONV_NUM_METHOD_TURB= SCALAR_UPWIND
MUSCL_TURB= NO
SLOPE_LIMITER_TURB= NONE
CONV_FIELD= ( RMS_DENSITY )
CONV_RESIDUAL_MINVAL= -13.0
CONV_STARTITER= 10
CONV_CAUCHY_ELEMS= 100
CONV_CAUCHY_EPS= 1E-6
MESH_FILENAME= flatplate_turb_L2_273x193.su2
TABULAR_FORMAT= TECPLOT
OUTPUT_FILES= (RESTART, PARAVIEW, SURFACE_PARAVIEW)
VOLUME_OUTPUT= (COORDINATES, SOLUTION, PRIMITIVE)
SCREEN_OUTPUT= (INNER_ITER, WALL_TIME, RMS_DENSITY, RMS_ENERGY, LIFT, DRAG, AVG_CFL,  REL_RMS_DENSITY)
HISTORY_OUTPUT= ITER, AERO_COEFF, RMS_RES, REL_RMS_RES, CFL_NUMBER
WRT_FORCES_BREAKDOWN= YES
WRT_PERFORMANCE= YES
SOLUTION_FILENAME= solution_flow.dat
SOLUTION_ADJ_FILENAME= solution_adj.dat
DV_VALUE_NEW= 0
DV_VALUE_OLD= 0
OPT_ITERATIONS= 100
OPT_ACCURACY= 1e-10
OPT_RELAX_FACTOR= 1.0
OPT_GRADIENT_FACTOR= 1.0
OPT_BOUND_UPPER= 10000000000.0
OPT_BOUND_LOWER= -10000000000.0
OPT_COMBINE_OBJECTIVE= NO
OPT_CONSTRAINT= NONE
VALUE_OBJFUNC_FILENAME= of_eval.dat
GRAD_OBJFUNC_FILENAME= of_grad.dat
AOA= 0.0
SIDESLIP_ANGLE= 0.0
TARGET_CL= 0.0
FREESTREAM_PRESSURE= 101325.0
MULTIPOINT_WEIGHT= (1.0)
MULTIPOINT_MACH_NUMBER= (0.2)
MULTIPOINT_AOA= (0.0)
MULTIPOINT_SIDESLIP_ANGLE= (0.0)
MULTIPOINT_REYNOLDS_NUMBER= (5000000.0)
MULTIPOINT_TARGET_CL= (0.0)
MULTIPOINT_FREESTREAM_PRESSURE= (101325.0)
MULTIPOINT_FREESTREAM_TEMPERATURE= (300.0)
MULTIPOINT_OUTLET_VALUE= ( 114455.0)
MULTIPOINT_MESH_FILENAME= (flatplate_turb_L3_137x97.su2)
OBJECTIVE_FUNCTION= DRAG
DV_KIND= FFD_SETTING
DV_PARAM= ( 1, 0.5) 
DEFINITION_DV= ( 30 , 1.0 | WING  | 0.0 , 0.05  )
NUMBER_PART= 18
DV_VALUE= 0
